Circuit: * Z:\home\benjamin\school\PSAS\OreSat\git\uniclogs-hardware\eb-ground-station\power-system\slow-start-circuit.asc

WARNING: Node NC_01 is floating.

WARNING: Less than two connections to node NC_01.  This node is used by R5.
Direct Newton iteration for .op point succeeded.

Date: Mon Aug 22 14:05:05 2022
Total elapsed time: 0.049 seconds.

tnom = 27
temp = 27
method = modified trap
totiter = 2711
traniter = 2697
tranpoints = 1190
accept = 1153
rejected = 37
matrix size = 22
fillins = 11
solver = Normal
Matrix Compiler1: 1.84 KB object code size  0.3/0.2/[0.1]
Matrix Compiler2: off  [0.1]/0.2/0.2

