Circuit: * Z:\home\benjamin\Documents\school\oresat\uniclogs-hardware\eb-ground-station\power-system\slow-start-circuit-1fet.asc

Direct Newton iteration for .op point succeeded.

Date: Sun Dec 04 15:37:11 2022
Total elapsed time: 0.091 seconds.

tnom = 27
temp = 27
method = modified trap
totiter = 2581
traniter = 2571
tranpoints = 1144
accept = 1127
rejected = 17
matrix size = 15
fillins = 3
solver = Normal
Matrix Compiler1: 972 bytes object code size  0.3/0.2/[0.2]
Matrix Compiler2: 1.21 KB object code size  0.2/0.3/[0.2]

